!- Windows Line endings 

VERSION,
    9.5.0;                    !- Version Identifier

OUTPUT:VARIABLEDICTIONARY,
    IDF;                      !- Key Field

OUTPUT:TABLE:SUMMARYREPORTS,
    AllSummary;               !- Report 1 Name

OUTPUTCONTROL:TABLE:STYLE,
    CommaAndHTML,             !- Column Separator
    JtoKWH;                   !- Unit Conversion