!- Windows Line endings 

VERSION,
    9.5.0;                    !- Version Identifier

SHADOWCALCULATION,
    PolygonClipping,          !- Shading Calculation Method
    Periodic,                 !- Shading Calculation Update Frequency Method
    7,                        !- Shading Calculation Update Frequency
    15000,                    !- Maximum Figures in Shadow Overlap Calculations
    SutherlandHodgman,        !- Polygon Clipping Algorithm
    512,                      !- Pixel Counting Resolution
    SimpleSkyDiffuseModeling,    !- Sky Diffuse Modeling Algorithm
    No,                       !- Output External Shading Calculation Results
    No,                       !- Disable SelfShading Within Shading Zone Groups
    No;                       !- Disable SelfShading From Shading Zone Groups to Other Zones

WINDOWMATERIAL:GLAZING,
    http://uesl_data/sources/archetypes/constructionLayers/1948_Wi1_L1,    !- Name
    SpectralAverage,          !- Optical Data Type
    ,                         !- Window Glass Spectral Data Set Name
    0.006,                    !- Thickness
    0.775,                    !- Solar Transmittance at Normal Incidence
    0.071,                    !- Front Side Solar Reflectance at Normal Incidence
    0.071,                    !- Back Side Solar Reflectance at Normal Incidence
    0.881,                    !- Visible Transmittance at Normal Incidence
    0.08,                     !- Front Side Visible Reflectance at Normal Incidence
    0.08,                     !- Back Side Visible Reflectance at Normal Incidence
    0,                        !- Infrared Transmittance at Normal Incidence
    0.84,                     !- Front Side Infrared Hemispherical Emissivity
    0.84,                     !- Back Side Infrared Hemispherical Emissivity
    0.9,                      !- Conductivity
    1,                        !- Dirt Correction Factor for Solar and Visible Transmittance
    No,                       !- Solar Diffusing
    72000000000,              !- Youngs modulus
    0.22;                     !- Poissons ratio

CONSTRUCTION,
    http://uesl_data/sources/archetypes/windows/Window1948_Standard,    !- Name
    http://uesl_data/sources/archetypes/constructionLayers/1948_Wi1_L1;    !- Outside Layer

SHADING:BUILDING:DETAILED,
    Ext1_Wall0,               !- Name
    ,                         !- Transmittance Schedule Name
    4,                        !- Number of Vertices
    -35.00000,                !- Vertex 1 Xcoordinate
    10.00000,                 !- Vertex 1 Ycoordinate
    0.00000,                  !- Vertex 1 Zcoordinate
    -35.00000,                !- Vertex 2 Xcoordinate
    0.00000,                  !- Vertex 2 Ycoordinate
    0.00000,                  !- Vertex 2 Zcoordinate
    -35.00000,                !- Vertex 3 Xcoordinate
    0.00000,                  !- Vertex 3 Ycoordinate
    12.50000,                 !- Vertex 3 Zcoordinate
    -35.00000,                !- Vertex 4 Xcoordinate
    10.00000,                 !- Vertex 4 Ycoordinate
    12.50000;                 !- Vertex 4 Zcoordinate

SHADING:BUILDING:DETAILED,
    Ext1_Wall1,               !- Name
    ,                         !- Transmittance Schedule Name
    4,                        !- Number of Vertices
    -10.00000,                !- Vertex 1 Xcoordinate
    10.00000,                 !- Vertex 1 Ycoordinate
    0.00000,                  !- Vertex 1 Zcoordinate
    -35.00000,                !- Vertex 2 Xcoordinate
    10.00000,                 !- Vertex 2 Ycoordinate
    0.00000,                  !- Vertex 2 Zcoordinate
    -35.00000,                !- Vertex 3 Xcoordinate
    10.00000,                 !- Vertex 3 Ycoordinate
    12.50000,                 !- Vertex 3 Zcoordinate
    -10.00000,                !- Vertex 4 Xcoordinate
    10.00000,                 !- Vertex 4 Ycoordinate
    12.50000;                 !- Vertex 4 Zcoordinate

SHADING:BUILDING:DETAILED,
    Ext1_Wall2,               !- Name
    ,                         !- Transmittance Schedule Name
    4,                        !- Number of Vertices
    -10.00000,                !- Vertex 1 Xcoordinate
    0.00000,                  !- Vertex 1 Ycoordinate
    0.00000,                  !- Vertex 1 Zcoordinate
    -10.00000,                !- Vertex 2 Xcoordinate
    10.00000,                 !- Vertex 2 Ycoordinate
    0.00000,                  !- Vertex 2 Zcoordinate
    -10.00000,                !- Vertex 3 Xcoordinate
    10.00000,                 !- Vertex 3 Ycoordinate
    12.50000,                 !- Vertex 3 Zcoordinate
    -10.00000,                !- Vertex 4 Xcoordinate
    0.00000,                  !- Vertex 4 Ycoordinate
    12.50000;                 !- Vertex 4 Zcoordinate

SHADING:BUILDING:DETAILED,
    Ext1_Wall3,               !- Name
    ,                         !- Transmittance Schedule Name
    4,                        !- Number of Vertices
    -35.00000,                !- Vertex 1 Xcoordinate
    0.00000,                  !- Vertex 1 Ycoordinate
    0.00000,                  !- Vertex 1 Zcoordinate
    -10.00000,                !- Vertex 2 Xcoordinate
    0.00000,                  !- Vertex 2 Ycoordinate
    0.00000,                  !- Vertex 2 Zcoordinate
    -10.00000,                !- Vertex 3 Xcoordinate
    0.00000,                  !- Vertex 3 Ycoordinate
    12.50000,                 !- Vertex 3 Zcoordinate
    -35.00000,                !- Vertex 4 Xcoordinate
    0.00000,                  !- Vertex 4 Ycoordinate
    12.50000;                 !- Vertex 4 Zcoordinate

SHADING:BUILDING:DETAILED,
    Ext1_Roof,                !- Name
    ,                         !- Transmittance Schedule Name
    4,                        !- Number of Vertices
    -10.00000,                !- Vertex 1 Xcoordinate
    0.00000,                  !- Vertex 1 Ycoordinate
    12.50000,                 !- Vertex 1 Zcoordinate
    -10.00000,                !- Vertex 2 Xcoordinate
    10.00000,                 !- Vertex 2 Ycoordinate
    12.50000,                 !- Vertex 2 Zcoordinate
    -35.00000,                !- Vertex 3 Xcoordinate
    10.00000,                 !- Vertex 3 Ycoordinate
    12.50000,                 !- Vertex 3 Zcoordinate
    -35.00000,                !- Vertex 4 Xcoordinate
    0.00000,                  !- Vertex 4 Ycoordinate
    12.50000;                 !- Vertex 4 Zcoordinate

SHADINGPROPERTY:REFLECTANCE,
    Ext1_Wall0,               !- Shading Surface Name
    0.3,                      !- Diffuse Solar Reflectance of Unglazed Part of Shading Surface
    0.3,                      !- Diffuse Visible Reflectance of Unglazed Part of Shading Surface
    0.3,                      !- Fraction of Shading Surface That Is Glazed
    http://uesl_data/sources/archetypes/windows/Window1948_Standard;    !- Glazing Construction Name

SHADINGPROPERTY:REFLECTANCE,
    Ext1_Wall1,               !- Shading Surface Name
    0.3,                      !- Diffuse Solar Reflectance of Unglazed Part of Shading Surface
    0.3,                      !- Diffuse Visible Reflectance of Unglazed Part of Shading Surface
    0.3,                      !- Fraction of Shading Surface That Is Glazed
    http://uesl_data/sources/archetypes/windows/Window1948_Standard;    !- Glazing Construction Name

SHADINGPROPERTY:REFLECTANCE,
    Ext1_Wall2,               !- Shading Surface Name
    0.3,                      !- Diffuse Solar Reflectance of Unglazed Part of Shading Surface
    0.3,                      !- Diffuse Visible Reflectance of Unglazed Part of Shading Surface
    0.3,                      !- Fraction of Shading Surface That Is Glazed
    http://uesl_data/sources/archetypes/windows/Window1948_Standard;    !- Glazing Construction Name

SHADINGPROPERTY:REFLECTANCE,
    Ext1_Wall3,               !- Shading Surface Name
    0.3,                      !- Diffuse Solar Reflectance of Unglazed Part of Shading Surface
    0.3,                      !- Diffuse Visible Reflectance of Unglazed Part of Shading Surface
    0.3,                      !- Fraction of Shading Surface That Is Glazed
    http://uesl_data/sources/archetypes/windows/Window1948_Standard;    !- Glazing Construction Name

SHADINGPROPERTY:REFLECTANCE,
    Ext1_Roof,                !- Shading Surface Name
    0.15,                     !- Diffuse Solar Reflectance of Unglazed Part of Shading Surface
    0.1,                      !- Diffuse Visible Reflectance of Unglazed Part of Shading Surface
    0,                        !- Fraction of Shading Surface That Is Glazed
    http://uesl_data/sources/archetypes/windows/Window1948_Standard;    !- Glazing Construction Name