!- Windows Line endings 

VERSION,
    9.5.0;                    !- Version Identifier

MATERIAL,
    sample_mat.0250,          !- Name
    Rough,                    !- Roughness
    0.025,                    !- Thickness
    0.04,                     !- Conductivity
    22,                       !- Density
    830,                      !- Specific Heat
    0.9,                      !- Thermal Absorptance
    0.6,                      !- Solar Absorptance
    0.6;                      !- Visible Absorptance

MATERIAL,
    sample_mat.0150,          !- Name
    Rough,                    !- Roughness
    0.015,                    !- Thickness
    0.04,                     !- Conductivity
    22,                       !- Density
    830,                      !- Specific Heat
    0.9,                      !- Thermal Absorptance
    0.6,                      !- Solar Absorptance
    0.6;                      !- Visible Absorptance

CONSTRUCTION,
    the_sample_construction,    !- Name
    sample_mat.0250,          !- Outside Layer
    sample_mat.0150;          !- Layer 2