!- Windows Line endings 

VERSION,
    9.3.0;                    !- Version Identifier

SIMULATIONCONTROL,
    No,                       !- Do Zone Sizing Calculation
    No,                       !- Do System Sizing Calculation
    No,                       !- Do Plant Sizing Calculation
    No,                       !- Run Simulation for Sizing Periods
    Yes,                      !- Run Simulation for Weather File Run Periods
    No,                       !- Do HVAC Sizing Simulation for Sizing Periods
    1;                        !- Maximum Number of HVAC Sizing Simulation Passes

BUILDING,
    Building,                 !- Name
    0,                        !- North Axis
    Suburbs,                  !- Terrain
    0.04,                     !- Loads Convergence Tolerance Value
    0.4,                      !- Temperature Convergence Tolerance Value
    FullExterior,             !- Solar Distribution
    25,                       !- Maximum Number of Warmup Days
    1;                        !- Minimum Number of Warmup Days

SHADOWCALCULATION,
    PolygonClipping,          !- Shading Calculation Method
    Periodic,                 !- Shading Calculation Update Frequency Method
    7,                        !- Shading Calculation Update Frequency
    15000,                    !- Maximum Figures in Shadow Overlap Calculations
    SutherlandHodgman,        !- Polygon Clipping Algorithm
    512,                      !- Pixel Counting Resolution
    SimpleSkyDiffuseModeling,    !- Sky Diffuse Modeling Algorithm
    No,                       !- Output External Shading Calculation Results
    No,                       !- Disable SelfShading Within Shading Zone Groups
    No;                       !- Disable SelfShading From Shading Zone Groups to Other Zones

ZONEAIRHEATBALANCEALGORITHM,
    AnalyticalSolution;       !- Algorithm

TIMESTEP,
    4;                        !- Number of Timesteps per Hour

CONVERGENCELIMITS,
    2,                        !- Minimum System Timestep
    25,                       !- Maximum HVAC Iterations
    2,                        !- Minimum Plant Iterations
    8;                        !- Maximum Plant Iterations

RUNPERIOD,
    DefaultRunPeriod,         !- Name
    1,                        !- Begin Month
    1,                        !- Begin Day of Month
    ,                         !- Begin Year
    12,                       !- End Month
    31,                       !- End Day of Month
    ,                         !- End Year
    Sunday,                   !- Day of Week for Start Day
    No,                       !- Use Weather File Holidays and Special Days
    No,                       !- Use Weather File Daylight Saving Period
    No,                       !- Apply Weekend Holiday Rule
    Yes,                      !- Use Weather File Rain Indicators
    Yes,                      !- Use Weather File Snow Indicators
    No;                       !- Treat Weather as Actual

SITE:GROUNDTEMPERATURE:BUILDINGSURFACE,
    18,                       !- January Ground Temperature
    18,                       !- February Ground Temperature
    18,                       !- March Ground Temperature
    18,                       !- April Ground Temperature
    18,                       !- May Ground Temperature
    18,                       !- June Ground Temperature
    18,                       !- July Ground Temperature
    18,                       !- August Ground Temperature
    18,                       !- September Ground Temperature
    18,                       !- October Ground Temperature
    18,                       !- November Ground Temperature
    18;                       !- December Ground Temperature

SITE:GROUNDTEMPERATURE:FCFACTORMETHOD,
    1.6,                      !- January Ground Temperature
    0.7,                      !- February Ground Temperature
    2.3,                      !- March Ground Temperature
    4.8,                      !- April Ground Temperature
    11.2,                     !- May Ground Temperature
    16.2,                     !- June Ground Temperature
    19.6,                     !- July Ground Temperature
    20.6,                     !- August Ground Temperature
    18.9,                     !- September Ground Temperature
    15,                       !- October Ground Temperature
    9.8,                      !- November Ground Temperature
    5;                        !- December Ground Temperature

SITE:GROUNDTEMPERATURE:SHALLOW,
    14,                       !- January Surface Ground Temperature
    14,                       !- February Surface Ground Temperature
    14,                       !- March Surface Ground Temperature
    14,                       !- April Surface Ground Temperature
    14,                       !- May Surface Ground Temperature
    14,                       !- June Surface Ground Temperature
    14,                       !- July Surface Ground Temperature
    14,                       !- August Surface Ground Temperature
    14,                       !- September Surface Ground Temperature
    14,                       !- October Surface Ground Temperature
    14,                       !- November Surface Ground Temperature
    14;                       !- December Surface Ground Temperature

SITE:GROUNDTEMPERATURE:DEEP,
    14,                       !- January Deep Ground Temperature
    14,                       !- February Deep Ground Temperature
    14,                       !- March Deep Ground Temperature
    14,                       !- April Deep Ground Temperature
    14,                       !- May Deep Ground Temperature
    14,                       !- June Deep Ground Temperature
    14,                       !- July Deep Ground Temperature
    14,                       !- August Deep Ground Temperature
    14,                       !- September Deep Ground Temperature
    14,                       !- October Deep Ground Temperature
    14,                       !- November Deep Ground Temperature
    14;                       !- December Deep Ground Temperature

SCHEDULETYPELIMITS,
    FRACTION,                 !- Name
    0,                        !- Lower Limit Value
    1,                        !- Upper Limit Value
    CONTINUOUS;               !- Numeric Type

SCHEDULETYPELIMITS,
    ANY;                      !- Name

SCHEDULETYPELIMITS,
    TEMPERATURE,              !- Name
    -60,                      !- Lower Limit Value
    200,                      !- Upper Limit Value
    DISCRETE;                 !- Numeric Type

SCHEDULE:COMPACT,
    night_vent_schedule,      !- Name
    FRACTION,                 !- Schedule Type Limits Name
    Through: 12 / 31,         !- Field 1
    For: AllDays,             !- Field 2
    Until: 6:00,              !- Field 3
    1,                        !- Field 4
    until: 20:00,             !- Field 5
    0,                        !- Field 6
    until: 24:00,             !- Field 7
    1;                        !- Field 8

SCHEDULE:CONSTANT,
    Constant_1,               !- Name
    FRACTION,                 !- Schedule Type Limits Name
    1;                        !- Hourly Value

SCHEDULE:FILE,
    MFH_NOMINAL_occupancy_fraction_schedule,    !- Name
    FRACTION,                 !- Schedule Type Limits Name
    C:/Users/alja/Desktop/Local Temporary Work/Staverdi/solar potential calculations/profiles/SIA2024_MFH_nominal.csvy,    !- File Name
    2,                        !- Column Number
    86,                       !- Rows to Skip at Top
    8760,                     !- Number of Hours of Data
    Semicolon,                !- Column Separator
    No;                       !- Interpolate to Timestep

SCHEDULE:FILE,
    MFH_NOMINAL_activity_schedule,    !- Name
    ANY,                      !- Schedule Type Limits Name
    C:/Users/alja/Desktop/Local Temporary Work/Staverdi/solar potential calculations/profiles/SIA2024_MFH_nominal.csvy,    !- File Name
    3,                        !- Column Number
    86,                       !- Rows to Skip at Top
    8760,                     !- Number of Hours of Data
    Semicolon,                !- Column Separator
    No;                       !- Interpolate to Timestep

SCHEDULE:FILE,
    MFH_NOMINAL_lighting_fraction_schedule,    !- Name
    FRACTION,                 !- Schedule Type Limits Name
    C:/Users/alja/Desktop/Local Temporary Work/Staverdi/solar potential calculations/profiles/SIA2024_MFH_nominal.csvy,    !- File Name
    5,                        !- Column Number
    86,                       !- Rows to Skip at Top
    8760,                     !- Number of Hours of Data
    Semicolon,                !- Column Separator
    No;                       !- Interpolate to Timestep

SCHEDULE:FILE,
    MFH_NOMINAL_electric_appliances_fraction_schedule,    !- Name
    FRACTION,                 !- Schedule Type Limits Name
    C:/Users/alja/Desktop/Local Temporary Work/Staverdi/solar potential calculations/profiles/SIA2024_MFH_nominal.csvy,    !- File Name
    4,                        !- Column Number
    86,                       !- Rows to Skip at Top
    8760,                     !- Number of Hours of Data
    Semicolon,                !- Column Separator
    No;                       !- Interpolate to Timestep

SCHEDULE:FILE,
    MFH_NOMINAL_dhw_fraction_schedule,    !- Name
    FRACTION,                 !- Schedule Type Limits Name
    C:/Users/alja/Desktop/Local Temporary Work/Staverdi/solar potential calculations/profiles/SIA2024_MFH_nominal.csvy,    !- File Name
    6,                        !- Column Number
    86,                       !- Rows to Skip at Top
    8760,                     !- Number of Hours of Data
    Semicolon,                !- Column Separator
    No;                       !- Interpolate to Timestep

SCHEDULE:FILE,
    MFH_NOMINAL_heating_setpoint_schedule,    !- Name
    TEMPERATURE,              !- Schedule Type Limits Name
    C:/Users/alja/Desktop/Local Temporary Work/Staverdi/solar potential calculations/profiles/SIA2024_MFH_nominal.csvy,    !- File Name
    7,                        !- Column Number
    86,                       !- Rows to Skip at Top
    8760,                     !- Number of Hours of Data
    Semicolon,                !- Column Separator
    No;                       !- Interpolate to Timestep

SCHEDULE:FILE,
    MFH_NOMINAL_cooling_setpoint_schedule,    !- Name
    TEMPERATURE,              !- Schedule Type Limits Name
    C:/Users/alja/Desktop/Local Temporary Work/Staverdi/solar potential calculations/profiles/SIA2024_MFH_nominal.csvy,    !- File Name
    8,                        !- Column Number
    86,                       !- Rows to Skip at Top
    8760,                     !- Number of Hours of Data
    Semicolon,                !- Column Separator
    No;                       !- Interpolate to Timestep

SCHEDULE:FILE,
    MFH_NOMINAL_ventilation_fraction_schedule,    !- Name
    FRACTION,                 !- Schedule Type Limits Name
    C:/Users/alja/Desktop/Local Temporary Work/Staverdi/solar potential calculations/profiles/SIA2024_MFH_nominal.csvy,    !- File Name
    9,                        !- Column Number
    86,                       !- Rows to Skip at Top
    8760,                     !- Number of Hours of Data
    Semicolon,                !- Column Separator
    No;                       !- Interpolate to Timestep

MATERIAL,
    http://uesl_data/sources/archetypes/constructionLayers/1948_Gr2_L1_R_SIA-380-1_MinReq,    !- Name
    Rough,                    !- Roughness
    0.015,                    !- Thickness
    0.7,                      !- Conductivity
    1600,                     !- Density
    1000,                     !- Specific Heat
    0.9,                      !- Thermal Absorptance
    0.6,                      !- Solar Absorptance
    0.6;                      !- Visible Absorptance

MATERIAL,
    http://uesl_data/sources/archetypes/constructionLayers/1948_Gr2_L2_R_SIA-380-1_MinReq,    !- Name
    Rough,                    !- Roughness
    0.24,                     !- Thickness
    0.83,                     !- Conductivity
    500,                      !- Density
    840,                      !- Specific Heat
    0.9,                      !- Thermal Absorptance
    0.6,                      !- Solar Absorptance
    0.6;                      !- Visible Absorptance

MATERIAL,
    http://uesl_data/sources/archetypes/constructionLayers/1948_Gr2_L3_R_SIA-380-1_MinReq,    !- Name
    Rough,                    !- Roughness
    0.01,                     !- Thickness
    0.04,                     !- Conductivity
    240,                      !- Density
    760,                      !- Specific Heat
    0.9,                      !- Thermal Absorptance
    0.6,                      !- Solar Absorptance
    0.6;                      !- Visible Absorptance

MATERIAL,
    http://uesl_data/sources/archetypes/constructionLayers/1948_Gr2_L4_R_SIA-380-1_MinReq,    !- Name
    Rough,                    !- Roughness
    0.025,                    !- Thickness
    0.09,                     !- Conductivity
    750,                      !- Density
    1300,                     !- Specific Heat
    0.9,                      !- Thermal Absorptance
    0.6,                      !- Solar Absorptance
    0.6;                      !- Visible Absorptance

MATERIAL,
    http://uesl_data/sources/archetypes/constructionLayers/1948_Gr2_L5_R_SIA-380-1_MinReq,    !- Name
    Rough,                    !- Roughness
    0.08,                     !- Thickness
    0.035,                    !- Conductivity
    100,                      !- Density
    840,                      !- Specific Heat
    0.9,                      !- Thermal Absorptance
    0.6,                      !- Solar Absorptance
    0.6;                      !- Visible Absorptance

MATERIAL,
    http://uesl_data/sources/archetypes/constructionLayers/1948_Gr2_L6_R_SIA-380-1_MinReq,    !- Name
    Rough,                    !- Roughness
    0.024,                    !- Thickness
    0.2,                      !- Conductivity
    800,                      !- Density
    1300,                     !- Specific Heat
    0.9,                      !- Thermal Absorptance
    0.7,                      !- Solar Absorptance
    0.7;                      !- Visible Absorptance

MATERIAL,
    http://uesl_data/sources/archetypes/floors/cesar_default_internal_ceiling_L1,    !- Name
    Rough,                    !- Roughness
    0.1,                      !- Thickness
    1.4,                      !- Conductivity
    2100,                     !- Density
    840,                      !- Specific Heat
    0.9,                      !- Thermal Absorptance
    0.6,                      !- Solar Absorptance
    0.6;                      !- Visible Absorptance

MATERIAL,
    http://uesl_data/sources/archetypes/constructionLayers/1948_Wa7_L1_R_SIA-380-1_MinReq,    !- Name
    Rough,                    !- Roughness
    0.005,                    !- Thickness
    0.87,                     !- Conductivity
    2085,                     !- Density
    840,                      !- Specific Heat
    0.9,                      !- Thermal Absorptance
    0.6,                      !- Solar Absorptance
    0.6;                      !- Visible Absorptance

MATERIAL,
    http://uesl_data/sources/archetypes/constructionLayers/1948_Wa7_L2_R_SIA-380-1_MinReq,    !- Name
    Rough,                    !- Roughness
    0.07,                     !- Thickness
    0.038,                    !- Conductivity
    15,                       !- Density
    1500,                     !- Specific Heat
    0.9,                      !- Thermal Absorptance
    0.6,                      !- Solar Absorptance
    0.6;                      !- Visible Absorptance

MATERIAL,
    http://uesl_data/sources/archetypes/constructionLayers/1948_Wa7_L3_R_SIA-380-1_MinReq,    !- Name
    Rough,                    !- Roughness
    0.115,                    !- Thickness
    0.96,                     !- Conductivity
    2000,                     !- Density
    840,                      !- Specific Heat
    0.9,                      !- Thermal Absorptance
    0.6,                      !- Solar Absorptance
    0.6;                      !- Visible Absorptance

MATERIAL,
    http://uesl_data/sources/archetypes/constructionLayers/1948_Wa7_L4_R_SIA-380-1_MinReq,    !- Name
    Rough,                    !- Roughness
    0.07,                     !- Thickness
    0.038,                    !- Conductivity
    15,                       !- Density
    1500,                     !- Specific Heat
    0.9,                      !- Thermal Absorptance
    0.6,                      !- Solar Absorptance
    0.6;                      !- Visible Absorptance

MATERIAL,
    http://uesl_data/sources/archetypes/constructionLayers/1948_Wa7_L5_R_SIA-380-1_MinReq,    !- Name
    Rough,                    !- Roughness
    0.115,                    !- Thickness
    0.81,                     !- Conductivity
    1500,                     !- Density
    840,                      !- Specific Heat
    0.9,                      !- Thermal Absorptance
    0.6,                      !- Solar Absorptance
    0.6;                      !- Visible Absorptance

MATERIAL,
    http://uesl_data/sources/archetypes/constructionLayers/1948_Wa7_L6_R_SIA-380-1_MinReq,    !- Name
    Rough,                    !- Roughness
    0.015,                    !- Thickness
    0.7,                      !- Conductivity
    1100,                     !- Density
    900,                      !- Specific Heat
    0.9,                      !- Thermal Absorptance
    0.6,                      !- Solar Absorptance
    0.6;                      !- Visible Absorptance

MATERIAL,
    http://uesl_data/sources/archetypes/constructionLayers/1948_Ro4_L1_R_SIA-380-1_MinReq,    !- Name
    Rough,                    !- Roughness
    0.008,                    !- Thickness
    0.17,                     !- Conductivity
    1050,                     !- Density
    1000,                     !- Specific Heat
    0.9,                      !- Thermal Absorptance
    0.9,                      !- Solar Absorptance
    0.9;                      !- Visible Absorptance

MATERIAL,
    http://uesl_data/sources/archetypes/constructionLayers/1948_Ro4_L2_R_SIA-380-1_MinReq,    !- Name
    Rough,                    !- Roughness
    0.12,                     !- Thickness
    0.038,                    !- Conductivity
    15,                       !- Density
    1500,                     !- Specific Heat
    0.9,                      !- Thermal Absorptance
    0.6,                      !- Solar Absorptance
    0.6;                      !- Visible Absorptance

MATERIAL,
    http://uesl_data/sources/archetypes/constructionLayers/1948_Ro4_L3_R_SIA-380-1_MinReq,    !- Name
    Rough,                    !- Roughness
    0.02,                     !- Thickness
    0.17,                     !- Conductivity
    1050,                     !- Density
    1000,                     !- Specific Heat
    0.9,                      !- Thermal Absorptance
    0.9,                      !- Solar Absorptance
    0.9;                      !- Visible Absorptance

MATERIAL,
    http://uesl_data/sources/archetypes/constructionLayers/1948_Ro4_L4_R_SIA-380-1_MinReq,    !- Name
    Rough,                    !- Roughness
    0.175,                    !- Thickness
    0.23,                     !- Conductivity
    700,                      !- Density
    840,                      !- Specific Heat
    0.9,                      !- Thermal Absorptance
    0.8,                      !- Solar Absorptance
    0.8;                      !- Visible Absorptance

MATERIAL,
    http://uesl_data/sources/archetypes/constructionLayers/1948_Ro4_L5_R_SIA-380-1_MinReq,    !- Name
    Rough,                    !- Roughness
    0.005,                    !- Thickness
    0.7,                      !- Conductivity
    1600,                     !- Density
    1000,                     !- Specific Heat
    0.9,                      !- Thermal Absorptance
    0.6,                      !- Solar Absorptance
    0.6;                      !- Visible Absorptance

WINDOWMATERIAL:GLAZING,
    http://uesl_data/sources/archetypes/constructionLayers/2001_Wi2_L1,    !- Name
    SpectralAverage,          !- Optical Data Type
    ,                         !- Window Glass Spectral Data Set Name
    0.005,                    !- Thickness
    0.85,                     !- Solar Transmittance at Normal Incidence
    0.077,                    !- Front Side Solar Reflectance at Normal Incidence
    0.077,                    !- Back Side Solar Reflectance at Normal Incidence
    0.904,                    !- Visible Transmittance at Normal Incidence
    0.083,                    !- Front Side Visible Reflectance at Normal Incidence
    0.083,                    !- Back Side Visible Reflectance at Normal Incidence
    0,                        !- Infrared Transmittance at Normal Incidence
    0.84,                     !- Front Side Infrared Hemispherical Emissivity
    0.84,                     !- Back Side Infrared Hemispherical Emissivity
    1,                        !- Conductivity
    1,                        !- Dirt Correction Factor for Solar and Visible Transmittance
    No,                       !- Solar Diffusing
    72000000000,              !- Youngs modulus
    0.22;                     !- Poissons ratio

WINDOWMATERIAL:GLAZING,
    http://uesl_data/sources/archetypes/constructionLayers/2001_Wi2_L3,    !- Name
    SpectralAverage,          !- Optical Data Type
    ,                         !- Window Glass Spectral Data Set Name
    0.005,                    !- Thickness
    0.591,                    !- Solar Transmittance at Normal Incidence
    0.289,                    !- Front Side Solar Reflectance at Normal Incidence
    0.225,                    !- Back Side Solar Reflectance at Normal Incidence
    0.896,                    !- Visible Transmittance at Normal Incidence
    0.044,                    !- Front Side Visible Reflectance at Normal Incidence
    0.048,                    !- Back Side Visible Reflectance at Normal Incidence
    0,                        !- Infrared Transmittance at Normal Incidence
    0.041,                    !- Front Side Infrared Hemispherical Emissivity
    0.84,                     !- Back Side Infrared Hemispherical Emissivity
    1,                        !- Conductivity
    1,                        !- Dirt Correction Factor for Solar and Visible Transmittance
    No,                       !- Solar Diffusing
    72000000000,              !- Youngs modulus
    0.22;                     !- Poissons ratio

WINDOWMATERIAL:GLAZING,
    http://uesl_data/sources/archetypes/constructionLayers/1948_Wi1_L1,    !- Name
    SpectralAverage,          !- Optical Data Type
    ,                         !- Window Glass Spectral Data Set Name
    0.006,                    !- Thickness
    0.775,                    !- Solar Transmittance at Normal Incidence
    0.071,                    !- Front Side Solar Reflectance at Normal Incidence
    0.071,                    !- Back Side Solar Reflectance at Normal Incidence
    0.881,                    !- Visible Transmittance at Normal Incidence
    0.08,                     !- Front Side Visible Reflectance at Normal Incidence
    0.08,                     !- Back Side Visible Reflectance at Normal Incidence
    0,                        !- Infrared Transmittance at Normal Incidence
    0.84,                     !- Front Side Infrared Hemispherical Emissivity
    0.84,                     !- Back Side Infrared Hemispherical Emissivity
    0.9,                      !- Conductivity
    1,                        !- Dirt Correction Factor for Solar and Visible Transmittance
    No,                       !- Solar Diffusing
    72000000000,              !- Youngs modulus
    0.22;                     !- Poissons ratio

WINDOWMATERIAL:GAS,
    http://uesl_data/sources/archetypes/constructionLayers/2001_Wi2_L2,    !- Name
    Krypton,                  !- Gas Type
    0.01;                     !- Thickness

WINDOWMATERIAL:SHADE,
    Shade0101,                !- Name
    0.31,                     !- Solar Transmittance
    0.5,                      !- Solar Reflectance
    0.31,                     !- Visible Transmittance
    0.5,                      !- Visible Reflectance
    0.9,                      !- Infrared Hemispherical Emissivity
    0,                        !- Infrared Transmittance
    0.001,                    !- Thickness
    0.9,                      !- Conductivity
    0.1,                      !- Shade to Glass Distance
    0,                        !- Top Opening Multiplier
    0,                        !- Bottom Opening Multiplier
    0,                        !- LeftSide Opening Multiplier
    0,                        !- RightSide Opening Multiplier
    0;                        !- Airflow Permeability

CONSTRUCTION,
    http://uesl_data/sources/archetypes/grounds/Ground1948_hollow_slab_medium_R_SIA-380-1_MinReq,    !- Name
    http://uesl_data/sources/archetypes/constructionLayers/1948_Gr2_L1_R_SIA-380-1_MinReq,    !- Outside Layer
    http://uesl_data/sources/archetypes/constructionLayers/1948_Gr2_L2_R_SIA-380-1_MinReq,    !- Layer 2
    http://uesl_data/sources/archetypes/constructionLayers/1948_Gr2_L3_R_SIA-380-1_MinReq,    !- Layer 3
    http://uesl_data/sources/archetypes/constructionLayers/1948_Gr2_L4_R_SIA-380-1_MinReq,    !- Layer 4
    http://uesl_data/sources/archetypes/constructionLayers/1948_Gr2_L5_R_SIA-380-1_MinReq,    !- Layer 5
    http://uesl_data/sources/archetypes/constructionLayers/1948_Gr2_L6_R_SIA-380-1_MinReq;    !- Layer 6

CONSTRUCTION,
    http://uesl_data/sources/archetypes/floors/cesar_default_internal_ceiling,    !- Name
    http://uesl_data/sources/archetypes/floors/cesar_default_internal_ceiling_L1;    !- Outside Layer

CONSTRUCTION,
    http://uesl_data/sources/archetypes/floors/cesar_default_internal_ceiling_mirrored,    !- Name
    http://uesl_data/sources/archetypes/floors/cesar_default_internal_ceiling_L1;    !- Outside Layer

CONSTRUCTION,
    http://uesl_data/sources/archetypes/walls/Wall1948_cavity_brick_medium_R_SIA-380-1_MinReq,    !- Name
    http://uesl_data/sources/archetypes/constructionLayers/1948_Wa7_L1_R_SIA-380-1_MinReq,    !- Outside Layer
    http://uesl_data/sources/archetypes/constructionLayers/1948_Wa7_L2_R_SIA-380-1_MinReq,    !- Layer 2
    http://uesl_data/sources/archetypes/constructionLayers/1948_Wa7_L3_R_SIA-380-1_MinReq,    !- Layer 3
    http://uesl_data/sources/archetypes/constructionLayers/1948_Wa7_L4_R_SIA-380-1_MinReq,    !- Layer 4
    http://uesl_data/sources/archetypes/constructionLayers/1948_Wa7_L5_R_SIA-380-1_MinReq,    !- Layer 5
    http://uesl_data/sources/archetypes/constructionLayers/1948_Wa7_L6_R_SIA-380-1_MinReq;    !- Layer 6

CONSTRUCTION,
    http://uesl_data/sources/archetypes/roofs/Roof1948_cellular_concrete_medium_R_SIA-380-1_MinReq,    !- Name
    http://uesl_data/sources/archetypes/constructionLayers/1948_Ro4_L1_R_SIA-380-1_MinReq,    !- Outside Layer
    http://uesl_data/sources/archetypes/constructionLayers/1948_Ro4_L2_R_SIA-380-1_MinReq,    !- Layer 2
    http://uesl_data/sources/archetypes/constructionLayers/1948_Ro4_L3_R_SIA-380-1_MinReq,    !- Layer 3
    http://uesl_data/sources/archetypes/constructionLayers/1948_Ro4_L4_R_SIA-380-1_MinReq,    !- Layer 4
    http://uesl_data/sources/archetypes/constructionLayers/1948_Ro4_L5_R_SIA-380-1_MinReq;    !- Layer 5

CONSTRUCTION,
    http://uesl_data/sources/archetypes/windows/Window2001_LowE_Xenon_Double,    !- Name
    http://uesl_data/sources/archetypes/constructionLayers/2001_Wi2_L1,    !- Outside Layer
    http://uesl_data/sources/archetypes/constructionLayers/2001_Wi2_L2,    !- Layer 2
    http://uesl_data/sources/archetypes/constructionLayers/2001_Wi2_L3;    !- Layer 3

CONSTRUCTION,
    http://uesl_data/sources/archetypes/windows/Window1948_Standard,    !- Name
    http://uesl_data/sources/archetypes/constructionLayers/1948_Wi1_L1;    !- Outside Layer

GLOBALGEOMETRYRULES,
    LowerLeftCorner,          !- Starting Vertex Position
    CounterClockWise,         !- Vertex Entry Direction
    Relative,                 !- Coordinate System
    Relative,                 !- Daylighting Reference Point Coordinate System
    Relative;                 !- Rectangular Surface Coordinate System

ZONE,
    ZoneFloor0,               !- Name
    0,                        !- Direction of Relative North
    0,                        !- X Origin
    0,                        !- Y Origin
    0,                        !- Z Origin
    1,                        !- Type
    1,                        !- Multiplier
    autocalculate,            !- Ceiling Height
    autocalculate,            !- Volume
    autocalculate,            !- Floor Area
    ,                         !- Zone Inside Convection Algorithm
    ,                         !- Zone Outside Convection Algorithm
    Yes;                      !- Part of Total Floor Area

ZONE,
    ZoneFloor1,               !- Name
    0,                        !- Direction of Relative North
    0,                        !- X Origin
    0,                        !- Y Origin
    0,                        !- Z Origin
    1,                        !- Type
    1,                        !- Multiplier
    autocalculate,            !- Ceiling Height
    autocalculate,            !- Volume
    autocalculate,            !- Floor Area
    ,                         !- Zone Inside Convection Algorithm
    ,                         !- Zone Outside Convection Algorithm
    Yes;                      !- Part of Total Floor Area

ZONE,
    ZoneFloor2,               !- Name
    0,                        !- Direction of Relative North
    0,                        !- X Origin