!- Windows Line endings 

VERSION,
    9.5.0;                    !- Version Identifier

SIMULATIONCONTROL,
    No,                       !- Do Zone Sizing Calculation
    No,                       !- Do System Sizing Calculation
    No,                       !- Do Plant Sizing Calculation
    No,                       !- Run Simulation for Sizing Periods
    Yes,                      !- Run Simulation for Weather File Run Periods
    No,                       !- Do HVAC Sizing Simulation for Sizing Periods
    1;                        !- Maximum Number of HVAC Sizing Simulation Passes

BUILDING,
    Building,                 !- Name
    0,                        !- North Axis
    Suburbs,                  !- Terrain
    0.04,                     !- Loads Convergence Tolerance Value
    0.4,                      !- Temperature Convergence Tolerance Value
    FullExterior,             !- Solar Distribution
    25,                       !- Maximum Number of Warmup Days
    1;                        !- Minimum Number of Warmup Days

SHADOWCALCULATION,
    PolygonClipping,          !- Shading Calculation Method
    Periodic,                 !- Shading Calculation Update Frequency Method
    7,                        !- Shading Calculation Update Frequency
    15000,                    !- Maximum Figures in Shadow Overlap Calculations
    SutherlandHodgman,        !- Polygon Clipping Algorithm
    512,                      !- Pixel Counting Resolution
    SimpleSkyDiffuseModeling,    !- Sky Diffuse Modeling Algorithm
    No,                       !- Output External Shading Calculation Results
    No,                       !- Disable SelfShading Within Shading Zone Groups
    No;                       !- Disable SelfShading From Shading Zone Groups to Other Zones

ZONEAIRHEATBALANCEALGORITHM,
    AnalyticalSolution;       !- Algorithm

TIMESTEP,
    4;                        !- Number of Timesteps per Hour

CONVERGENCELIMITS,
    2,                        !- Minimum System Timestep
    25,                       !- Maximum HVAC Iterations
    2,                        !- Minimum Plant Iterations
    8;                        !- Maximum Plant Iterations

RUNPERIOD,
    DefaultRunPeriod,         !- Name
    1,                        !- Begin Month
    1,                        !- Begin Day of Month
    ,                         !- Begin Year
    12,                       !- End Month
    31,                       !- End Day of Month
    ,                         !- End Year
    Sunday,                   !- Day of Week for Start Day
    No,                       !- Use Weather File Holidays and Special Days
    No,                       !- Use Weather File Daylight Saving Period
    No,                       !- Apply Weekend Holiday Rule
    Yes,                      !- Use Weather File Rain Indicators
    Yes,                      !- Use Weather File Snow Indicators
    No;                       !- Treat Weather as Actual

SITE:GROUNDTEMPERATURE:BUILDINGSURFACE,
    18,                       !- January Ground Temperature
    18,                       !- February Ground Temperature
    18,                       !- March Ground Temperature
    18,                       !- April Ground Temperature
    18,                       !- May Ground Temperature
    18,                       !- June Ground Temperature
    18,                       !- July Ground Temperature
    18,                       !- August Ground Temperature
    18,                       !- September Ground Temperature
    18,                       !- October Ground Temperature
    18,                       !- November Ground Temperature
    18;                       !- December Ground Temperature

SITE:GROUNDTEMPERATURE:FCFACTORMETHOD,
    1.6,                      !- January Ground Temperature
    0.7,                      !- February Ground Temperature
    2.3,                      !- March Ground Temperature
    4.8,                      !- April Ground Temperature
    11.2,                     !- May Ground Temperature
    16.2,                     !- June Ground Temperature
    19.6,                     !- July Ground Temperature
    20.6,                     !- August Ground Temperature
    18.9,                     !- September Ground Temperature
    15,                       !- October Ground Temperature
    9.8,                      !- November Ground Temperature
    5;                        !- December Ground Temperature

SITE:GROUNDTEMPERATURE:SHALLOW,
    14,                       !- January Surface Ground Temperature
    14,                       !- February Surface Ground Temperature
    14,                       !- March Surface Ground Temperature
    14,                       !- April Surface Ground Temperature
    14,                       !- May Surface Ground Temperature
    14,                       !- June Surface Ground Temperature
    14,                       !- July Surface Ground Temperature
    14,                       !- August Surface Ground Temperature
    14,                       !- September Surface Ground Temperature
    14,                       !- October Surface Ground Temperature
    14,                       !- November Surface Ground Temperature
    14;                       !- December Surface Ground Temperature

SITE:GROUNDTEMPERATURE:DEEP,
    14,                       !- January Deep Ground Temperature
    14,                       !- February Deep Ground Temperature
    14,                       !- March Deep Ground Temperature
    14,                       !- April Deep Ground Temperature
    14,                       !- May Deep Ground Temperature
    14,                       !- June Deep Ground Temperature
    14,                       !- July Deep Ground Temperature
    14,                       !- August Deep Ground Temperature
    14,                       !- September Deep Ground Temperature
    14,                       !- October Deep Ground Temperature
    14,                       !- November Deep Ground Temperature
    14;                       !- December Deep Ground Temperature

SCHEDULETYPELIMITS,
    FRACTION,                 !- Name
    0,                        !- Lower Limit Value
    1,                        !- Upper Limit Value
    CONTINUOUS;               !- Numeric Type

SCHEDULETYPELIMITS,
    ANY;                      !- Name

SCHEDULETYPELIMITS,
    TEMPERATURE,              !- Name
    -60,                      !- Lower Limit Value
    200,                      !- Upper Limit Value
    DISCRETE;                 !- Numeric Type

SCHEDULE:CONSTANT,
    Constant_1,               !- Name
    FRACTION,                 !- Schedule Type Limits Name
    1;                        !- Hourly Value

SCHEDULE:FILE,
    MFH_NOMINAL_occupancy_fraction_schedule,    !- Name
    FRACTION,                 !- Schedule Type Limits Name
    profiles\SIA2024_MFH_nominal.csvy,    !- File Name
    2,                        !- Column Number
    86,                       !- Rows to Skip at Top
    8760,                     !- Number of Hours of Data
    Semicolon,                !- Column Separator
    No;                       !- Interpolate to Timestep

SCHEDULE:FILE,
    MFH_NOMINAL_activity_schedule,    !- Name
    ANY,                      !- Schedule Type Limits Name
    profiles\SIA2024_MFH_nominal.csvy,    !- File Name
    3,                        !- Column Number
    86,                       !- Rows to Skip at Top
    8760,                     !- Number of Hours of Data
    Semicolon,                !- Column Separator
    No;                       !- Interpolate to Timestep

SCHEDULE:FILE,
    MFH_NOMINAL_lighting_fraction_schedule,    !- Name
    FRACTION,                 !- Schedule Type Limits Name
    profiles\SIA2024_MFH_nominal.csvy,    !- File Name
    5,                        !- Column Number
    86,                       !- Rows to Skip at Top
    8760,                     !- Number of Hours of Data
    Semicolon,                !- Column Separator
    No;                       !- Interpolate to Timestep

SCHEDULE:FILE,
    MFH_NOMINAL_electric_appliances_fraction_schedule,    !- Name
    FRACTION,                 !- Schedule Type Limits Name
    profiles\SIA2024_MFH_nominal.csvy,    !- File Name
    4,                        !- Column Number
    86,                       !- Rows to Skip at Top
    8760,                     !- Number of Hours of Data
    Semicolon,                !- Column Separator
    No;                       !- Interpolate to Timestep

SCHEDULE:FILE,
    MFH_NOMINAL_dhw_fraction_schedule,    !- Name
    FRACTION,                 !- Schedule Type Limits Name
    profiles\SIA2024_MFH_nominal.csvy,    !- File Name
    6,                        !- Column Number
    86,                       !- Rows to Skip at Top
    8760,                     !- Number of Hours of Data
    Semicolon,                !- Column Separator
    No;                       !- Interpolate to Timestep

SCHEDULE:FILE,
    MFH_NOMINAL_heating_setpoint_schedule,    !- Name
    TEMPERATURE,              !- Schedule Type Limits Name
    profiles\SIA2024_MFH_nominal.csvy,    !- File Name
    7,                        !- Column Number
    86,                       !- Rows to Skip at Top
    8760,                     !- Number of Hours of Data
    Semicolon,                !- Column Separator
    No;                       !- Interpolate to Timestep

SCHEDULE:FILE,
    MFH_NOMINAL_cooling_setpoint_schedule,    !- Name
    TEMPERATURE,              !- Schedule Type Limits Name
    profiles\SIA2024_MFH_nominal.csvy,    !- File Name
    8,                        !- Column Number
    86,                       !- Rows to Skip at Top
    8760,                     !- Number of Hours of Data
    Semicolon,                !- Column Separator
    No;                       !- Interpolate to Timestep

SCHEDULE:FILE,
    MFH_NOMINAL_ventilation_fraction_schedule,    !- Name
    FRACTION,                 !- Schedule Type Limits Name
    profiles\SIA2024_MFH_nominal.csvy,    !- File Name
    9,                        !- Column Number
    86,                       !- Rows to Skip at Top
    8760,                     !- Number of Hours of Data
    Semicolon,                !- Column Separator
    No;                       !- Interpolate to Timestep

MATERIAL,
    http://uesl_data/sources/archetypes/constructionLayers/1994_Gr2_L1,    !- Name
    Rough,                    !- Roughness
    0.14,                     !- Thickness
    1.5,                      !- Conductivity
    2000,                     !- Density
    840,                      !- Specific Heat
    0.9,                      !- Thermal Absorptance
    0.6,                      !- Solar Absorptance
    0.6;                      !- Visible Absorptance

MATERIAL,
    http://uesl_data/sources/archetypes/constructionLayers/1994_Gr2_L2,    !- Name
    Rough,                    !- Roughness
    0.02,                     !- Thickness
    0.04,                     !- Conductivity
    240,                      !- Density
    760,                      !- Specific Heat
    0.9,                      !- Thermal Absorptance
    0.6,                      !- Solar Absorptance
    0.6;                      !- Visible Absorptance

MATERIAL,
    http://uesl_data/sources/archetypes/constructionLayers/1994_Gr2_L3,    !- Name
    Rough,                    !- Roughness
    0.04,                     !- Thickness
    0.7,                      !- Conductivity
    1330,                     !- Density
    1000,                     !- Specific Heat
    0.9,                      !- Thermal Absorptance
    0.6,                      !- Solar Absorptance
    0.6;                      !- Visible Absorptance

MATERIAL,
    http://uesl_data/sources/archetypes/floors/cesar_default_internal_ceiling_L1,    !- Name
    Rough,                    !- Roughness
    0.1,                      !- Thickness
    1.4,                      !- Conductivity
    2100,                     !- Density
    840,                      !- Specific Heat
    0.9,                      !- Thermal Absorptance
    0.6,                      !- Solar Absorptance
    0.6;                      !- Visible Absorptance

MATERIAL,
    http://uesl_data/sources/archetypes/constructionLayers/1994_Wa2_L1,    !- Name
    Rough,                    !- Roughness
    0.015,                    !- Thickness
    0.87,                     !- Conductivity
    2085,                     !- Density
    840,                      !- Specific Heat
    0.9,                      !- Thermal Absorptance
    0.6,                      !- Solar Absorptance
    0.6;                      !- Visible Absorptance

MATERIAL,
    http://uesl_data/sources/archetypes/constructionLayers/1994_Wa2_L2,    !- Name
    Rough,                    !- Roughness
    0.24,                     !- Thickness
    0.13,                     !- Conductivity
    500,                      !- Density
    840,                      !- Specific Heat
    0.9,                      !- Thermal Absorptance
    0.6,                      !- Solar Absorptance
    0.6;                      !- Visible Absorptance

MATERIAL,
    http://uesl_data/sources/archetypes/constructionLayers/1994_Wa2_L3,    !- Name
    Rough,                    !- Roughness
    0.005,                    !- Thickness
    0.7,                      !- Conductivity
    1100,                     !- Density
    900,                      !- Specific Heat
    0.9,                      !- Thermal Absorptance
    0.6,                      !- Solar Absorptance
    0.6;                      !- Visible Absorptance

MATERIAL,
    http://uesl_data/sources/archetypes/constructionLayers/1994_Ro2_L1,    !- Name
    Rough,                    !- Roughness
    0.008,                    !- Thickness
    0.17,                     !- Conductivity
    1050,                     !- Density
    1000,                     !- Specific Heat
    0.9,                      !- Thermal Absorptance
    0.9,                      !- Solar Absorptance
    0.9;                      !- Visible Absorptance

MATERIAL,
    http://uesl_data/sources/archetypes/constructionLayers/1994_Ro2_L2,    !- Name
    Rough,                    !- Roughness
    0.09,                     !- Thickness
    0.04,                     !- Conductivity
    100,                      !- Density
    840,                      !- Specific Heat
    0.9,                      !- Thermal Absorptance
    0.6,                      !- Solar Absorptance
    0.6;                      !- Visible Absorptance

MATERIAL,
    http://uesl_data/sources/archetypes/constructionLayers/1994_Ro2_L4,    !- Name
    Rough,                    !- Roughness
    0.18,                     !- Thickness
    2.1,                      !- Conductivity
    2300,                     !- Density
    840,                      !- Specific Heat
    0.9,                      !- Thermal Absorptance
    0.6,                      !- Solar Absorptance
    0.6;                      !- Visible Absorptance

MATERIAL,
    http://uesl_data/sources/archetypes/constructionLayers/1994_Ro2_L5,    !- Name
    Rough,                    !- Roughness
    0.005,                    !- Thickness
    0.7,                      !- Conductivity
    1100,                     !- Density
    900,                      !- Specific Heat
    0.9,                      !- Thermal Absorptance
    0.6,                      !- Solar Absorptance
    0.6;                      !- Visible Absorptance

MATERIAL:NOMASS,
    http://uesl_data/sources/archetypes/constructionLayers/1994_Ro2_L3,    !- Name
    Rough,                    !- Roughness
    2.105263e-02,             !- Thermal Resistance
    0.9,                      !- Thermal Absorptance
    0.7,                      !- Solar Absorptance
    0.7;                      !- Visible Absorptance

WINDOWMATERIAL:GLAZING,
    http://uesl_data/sources/archetypes/constructionLayers/1994_Wi1_L1,    !- Name
    SpectralAverage,          !- Optical Data Type
    ,                         !- Window Glass Spectral Data Set Name
    0.005,                    !- Thickness
    0.85,                     !- Solar Transmittance at Normal Incidence
    0.077,                    !- Front Side Solar Reflectance at Normal Incidence
    0.077,                    !- Back Side Solar Reflectance at Normal Incidence
    0.904,                    !- Visible Transmittance at Normal Incidence
    0.083,                    !- Front Side Visible Reflectance at Normal Incidence
    0.083,                    !- Back Side Visible Reflectance at Normal Incidence
    0,                        !- Infrared Transmittance at Normal Incidence
    0.84,                     !- Front Side Infrared Hemispherical Emissivity
    0.84,                     !- Back Side Infrared Hemispherical Emissivity
    1,                        !- Conductivity
    1,                        !- Dirt Correction Factor for Solar and Visible Transmittance
    No,                       !- Solar Diffusing
    72000000000,              !- Youngs modulus
    0.22;                     !- Poissons ratio

WINDOWMATERIAL:GLAZING,
    http://uesl_data/sources/archetypes/constructionLayers/1994_Wi1_L3,    !- Name
    SpectralAverage,          !- Optical Data Type
    ,                         !- Window Glass Spectral Data Set Name
    0.005,                    !- Thickness
    0.591,                    !- Solar Transmittance at Normal Incidence
    0.289,                    !- Front Side Solar Reflectance at Normal Incidence
    0.225,                    !- Back Side Solar Reflectance at Normal Incidence
    0.896,                    !- Visible Transmittance at Normal Incidence
    0.044,                    !- Front Side Visible Reflectance at Normal Incidence
    0.048,                    !- Back Side Visible Reflectance at Normal Incidence
    0,                        !- Infrared Transmittance at Normal Incidence
    0.041,                    !- Front Side Infrared Hemispherical Emissivity
    0.84,                     !- Back Side Infrared Hemispherical Emissivity
    1,                        !- Conductivity
    1,                        !- Dirt Correction Factor for Solar and Visible Transmittance
    No,                       !- Solar Diffusing
    72000000000,              !- Youngs modulus
    0.22;                     !- Poissons ratio

WINDOWMATERIAL:GAS,
    http://uesl_data/sources/archetypes/constructionLayers/1994_Wi1_L2,    !- Name
    Air,                      !- Gas Type
    0.012;                    !- Thickness

WINDOWMATERIAL:SHADE,
    Shade0101,                !- Name
    0.31,                     !- Solar Transmittance
    0.5,                      !- Solar Reflectance
    0.31,                     !- Visible Transmittance
    0.5,                      !- Visible Reflectance
    0.9,                      !- Infrared Hemispherical Emissivity
    0,                        !- Infrared Transmittance
    0.001,                    !- Thickness
    0.9,                      !- Conductivity
    0.1,                      !- Shade to Glass Distance
    0,                        !- Top Opening Multiplier
    0,                        !- Bottom Opening Multiplier
    0,                        !- LeftSide Opening Multiplier
    0,                        !- RightSide Opening Multiplier
    0;                        !- Airflow Permeability

CONSTRUCTION,
    http://uesl_data/sources/archetypes/grounds/Ground1994_concrete_slab_medium,    !- Name
    http://uesl_data/sources/archetypes/constructionLayers/1994_Gr2_L1,    !- Outside Layer
    http://uesl_data/sources/archetypes/constructionLayers/1994_Gr2_L2,    !- Layer 2
    http://uesl_data/sources/archetypes/constructionLayers/1994_Gr2_L3;    !- Layer 3

CONSTRUCTION,
    http://uesl_data/sources/archetypes/floors/cesar_default_internal_ceiling,    !- Name
    http://uesl_data/sources/archetypes/floors/cesar_default_internal_ceiling_L1;    !- Outside Layer

CONSTRUCTION,
    http://uesl_data/sources/archetypes/floors/cesar_default_internal_ceiling_mirrored,    !- Name
    http://uesl_data/sources/archetypes/floors/cesar_default_internal_ceiling_L1;    !- Outside Layer

CONSTRUCTION,
    http://uesl_data/sources/archetypes/walls/Wall1994_concrete_areated_medium,    !- Name
    http://uesl_data/sources/archetypes/constructionLayers/1994_Wa2_L1,    !- Outside Layer
    http://uesl_data/sources/archetypes/constructionLayers/1994_Wa2_L2,    !- Layer 2
    http://uesl_data/sources/archetypes/constructionLayers/1994_Wa2_L3;    !- Layer 3

CONSTRUCTION,
    http://uesl_data/sources/archetypes/roofs/Roof1994_concrete_med_insulation,    !- Name
    http://uesl_data/sources/archetypes/constructionLayers/1994_Ro2_L1,    !- Outside Layer
    http://uesl_data/sources/archetypes/constructionLayers/1994_Ro2_L2,    !- Layer 2
    http://uesl_data/sources/archetypes/constructionLayers/1994_Ro2_L3,    !- Layer 3
    http://uesl_data/sources/archetypes/constructionLayers/1994_Ro2_L4,    !- Layer 4
    http://uesl_data/sources/archetypes/constructionLayers/1994_Ro2_L5;    !- Layer 5

CONSTRUCTION,
    http://uesl_data/sources/archetypes/windows/Window1994_LowE_Air_Double,    !- Name
    http://uesl_data/sources/archetypes/constructionLayers/1994_Wi1_L1,    !- Outside Layer
    http://uesl_data/sources/archetypes/constructionLayers/1994_Wi1_L2,    !- Layer 2
    http://uesl_data/sources/archetypes/constructionLayers/1994_Wi1_L3;    !- Layer 3

GLOBALGEOMETRYRULES,
    LowerLeftCorner,          !- Starting Vertex Position
    CounterClockWise,         !- Vertex Entry Direction
    Relative,                 !- Coordinate System
    Relative,                 !- Daylighting Reference Point Coordinate System
    Relative;                 !- Rectangular Surface Coordinate System

ZONE,
    ZoneFloor0,               !- Name
    0,                        !- Direction of Relative North
    0,                        !- X Origin
    0,                        !- Y Origin
    0,                        !- Z Origin
    1,                        !- Type
    1,                        !- Multiplier
    autocalculate,            !- Ceiling Height
    autocalculate,            !- Volume
    autocalculate,            !- Floor Area
    ,                         !- Zone Inside Convection Algorithm
    ,                         !- Zone Outside Convection Algorithm
    Yes;                      !- Part of Total Floor Area

ZONE,
    ZoneFloor1,               !- Name
    0,                        !- Direction of Relative North
    0,                        !- X Origin
    0,                        !- Y Origin
    0,                        !- Z Origin
    1,                        !- Type
    1,                        !- Multiplier
    autocalculate,            !- Ceiling Height
    autocalculate,            !- Volume
    autocalculate,            !- Floor Area
    ,                         !- Zone Inside Convection Algorithm
    ,                         !- Zone Outside Convection Algorithm
    Yes;                      !- Part of Total Floor Area

ZONE,
    ZoneFloor2,               !- Name
    0,                        !- Direction of Relative North
    0,                        !- X Origin
    0,                        !- Y Origin
    0,                        !- Z Origin
    1,                        !- Type
    1,                        !- Multiplier
    autocalculate,            !- Ceiling Height
    autocalculate,            !- Volume
    autocalculate,            !- Floor Area
    ,                         !- Zone Inside Convection Algorithm
    ,                         !- Zone Outside Convection Algorithm
    Yes;                      !- Part of Total Floor Area

ZONE,
    ZoneFloor3,               !- Name
    0,                        !- Direction of Relative North
    0,                        !- X Origin
    0,                        !- Y Origin
    0,                        !- Z Origin
    1,                        !- Type
    1,                        !- Multiplier
    autocalculate,            !- Ceiling Height
    autocalculate,            !- Volume
    autocalculate,            !- Floor Area
    ,                         !- Zone Inside Convection Algorithm
    ,                         !- Zone Outside Convection Algorithm
    Yes;                      !- Part of Total Floor Area

ZONE,
    ZoneFloor4,               !- Name
    0,                        !- Direction of Relative North
    0,                        !- X Origin
    0,                        !- Y Origin
    0,                        !- Z Origin
    1,                        !- Type
    1,                        !- Multiplier
    autocalculate,            !- Ceiling Height
    autocalculate,            !- Volume
    autocalculate,            !- Floor Area
    ,                         !- Zone Inside Convection Algorithm
    ,                         !- Zone Outside Convection Algorithm
    Yes;                      !- Part of Total Floor Area

BUILDINGSURFACE:DETAILED,
    ZoneFloor0_GroundFloor,    !- Name
    Floor,                    !- Surface Type
    http://uesl_data/sources/archetypes/grounds/Ground1994_concrete_slab_medium,    !- Construction Name
    ZoneFloor0,               !- Zone Name
    Ground,                   !- Outside Boundary Condition
    ,                         !- Outside Boundary Condition Object
    NoSun,                    !- Sun Exposure
    NoWind,                   !- Wind Exposure
    1,                        !- View Factor to Ground
    4,                        !- Number of Vertices
    0.00000,                  !- Vertex 1 Xcoordinate
    0.00000,                  !- Vertex 1 Ycoordinate
    0.00000,                  !- Vertex 1 Zcoordinate
    0.00000,                  !- Vertex 2 Xcoordinate
    10.00000,                 !- Vertex 2 Ycoordinate
    0.00000,                  !- Vertex 2 Zcoordinate
    25.00000,                 !- Vertex 3 Xcoordinate
    10.00000,                 !- Vertex 3 Ycoordinate
    0.00000,                  !- Vertex 3 Zcoordinate
    25.00000,                 !- Vertex 4 Xcoordinate
    0.00000,                  !- Vertex 4 Ycoordinate
    0.00000;                  !- Vertex 4 Zcoordinate

BUILDINGSURFACE:DETAILED,
    ZoneFloor0_Wall_0,        !- Name
    Wall,                     !- Surface Type
    http://uesl_data/sources/archetypes/walls/Wall1994_concrete_areated_medium,    !- Construction Name
    ZoneFloor0,               !- Zone Name
    Outdoors,                 !- Outside Boundary Condition
    ,                         !- Outside Boundary Condition Object
    SunExposed,               !- Sun Exposure
    WindExposed,              !- Wind Exposure
    autocalculate,            !- View Factor to Ground
    4,                        !- Number of Vertices
    0.00000,                  !- Vertex 1 Xcoordinate
    10.00000,                 !- Vertex 1 Ycoordinate
    0.00000,                  !- Vertex 1 Zcoordinate
    0.00000,                  !- Vertex 2 Xcoordinate
    0.00000,                  !- Vertex 2 Ycoordinate
    0.00000,                  !- Vertex 2 Zcoordinate
    0.00000,                  !- Vertex 3 Xcoordinate
    0.00000,                  !- Vertex 3 Ycoordinate
    2.50000,                  !- Vertex 3 Zcoordinate
    0.00000,                  !- Vertex 4 Xcoordinate
    10.00000,                 !- Vertex 4 Ycoordinate
    2.50000;                  !- Vertex 4 Zcoordinate

BUILDINGSURFACE:DETAILED,
    ZoneFloor0_Wall_1,        !- Name
    Wall,                     !- Surface Type
    http://uesl_data/sources/archetypes/walls/Wall1994_concrete_areated_medium,    !- Construction Name
    ZoneFloor0,               !- Zone Name
    Outdoors,                 !- Outside Boundary Condition
    ,                         !- Outside Boundary Condition Object
    SunExposed,               !- Sun Exposure
    WindExposed,              !- Wind Exposure
    autocalculate,            !- View Factor to Ground
    4,                        !- Number of Vertices
    25.00000,                 !- Vertex 1 Xcoordinate
    10.00000,                 !- Vertex 1 Ycoordinate
    0.00000,                  !- Vertex 1 Zcoordinate
    0.00000,                  !- Vertex 2 Xcoordinate
    10.00000,                 !- Vertex 2 Ycoordinate
    0.00000,                  !- Vertex 2 Zcoordinate
    0.00000,                  !- Vertex 3 Xcoordinate
    10.00000,                 !- Vertex 3 Ycoordinate
    2.50000,                  !- Vertex 3 Zcoordinate
    25.00000,                 !- Vertex 4 Xcoordinate
    10.00000,                 !- Vertex 4 Ycoordinate
    2.50000;                  !- Vertex 4 Zcoordinate

BUILDINGSURFACE:DETAILED,
    ZoneFloor0_Wall_2,        !- Name
    Wall,                     !- Surface Type
    http://uesl_data/sources/archetypes/walls/Wall1994_concrete_areated_medium,    !- Construction Name
    ZoneFloor0,               !- Zone Name
    Outdoors,                 !- Outside Boundary Condition
    ,                         !- Outside Boundary Condition Object
    SunExposed,               !- Sun Exposure
    WindExposed,              !- Wind Exposure
    autocalculate,            !- View Factor to Ground
    4,                        !- Number of Vertices
    25.00000,                 !- Vertex 1 Xcoordinate
    0.00000,                  !- Vertex 1 Ycoordinate
    0.00000,                  !- Vertex 1 Zcoordinate
    25.00000,                 !- Vertex 2 Xcoordinate
    10.00000,                 !- Vertex 2 Ycoordinate
    0.00000,                  !- Vertex 2 Zcoordinate
    25.00000,                 !- Vertex 3 Xcoordinate
    10.00000,                 !- Vertex 3 Ycoordinate
    2.50000,                  !- Vertex 3 Zcoordinate
    25.00000,                 !- Vertex 4 Xcoordinate
    0.00000,                  !- Vertex 4 Ycoordinate
    2.50000;                  !- Vertex 4 Zcoordinate

BUILDINGSURFACE:DETAILED,